LTspice 24.1.10 for Windows
Circuit: C:\Users\stant\OneDrive\Documentos\LTspice\Analog Electronics\Mod5\Mod5_Problem_2.net
Start Time: Sun Sep 28 18:57:41 2025
solver = Normal
Maximum thread count: 14
tnom = 27
temp = 27
method = trap
Direct Newton iteration for .op point succeeded.
Total elapsed time: 0.138 seconds.

Files loaded:
C:\Users\stant\OneDrive\Documentos\LTspice\Analog Electronics\Mod5\Mod5_Problem_2.net
C:\Users\stant\AppData\Local\LTspice\lib\cmp\standard.bjt

